Version 4
SHEET 1 1668 680
WIRE 400 32 48 32
WIRE 464 32 400 32
WIRE 976 32 528 32
WIRE 1104 32 976 32
WIRE 1152 32 1104 32
WIRE 1456 32 1408 32
WIRE 1536 32 1456 32
WIRE 1600 32 1536 32
WIRE 976 48 976 32
WIRE 1104 48 1104 32
WIRE 1456 48 1456 32
WIRE 1600 48 1600 32
WIRE 400 80 400 32
WIRE 48 96 48 32
WIRE 1152 128 1104 128
WIRE 976 144 976 112
WIRE 1456 144 1456 112
WIRE 1600 144 1600 128
WIRE 48 192 48 176
WIRE 400 192 400 144
WIRE 400 192 48 192
WIRE 48 224 48 192
WIRE 1152 224 1088 224
WIRE 1536 224 1536 32
WIRE 1536 224 1408 224
WIRE 1088 256 1088 224
WIRE 1088 336 1088 320
WIRE 1280 336 1280 288
FLAG 48 224 0
FLAG 1280 336 0
FLAG 1088 336 0
FLAG 976 144 0
FLAG 1456 144 0
FLAG 1600 144 0
SYMBOL voltage 48 80 R0
WINDOW 3 -456 100 Left 2
WINDOW 123 0 0 Left 0
WINDOW 39 -456 128 Left 2
SYMATTR InstName V1
SYMATTR Value EXP(12.0 105 10m 10m 10m 150m)
SYMATTR SpiceLine Rser=0.5
SYMBOL schottky 464 48 R270
WINDOW 0 32 32 VTop 2
WINDOW 3 0 32 VBottom 2
SYMATTR InstName D2
SYMATTR Value RBE2VAM20A
SYMATTR Description Diode
SYMATTR Type diode
SYMBOL diode 416 144 R180
WINDOW 0 24 64 Left 2
WINDOW 3 24 0 Left 2
SYMATTR InstName D1
SYMATTR Value Dtvs_SLD8S22A
SYMBOL PowerProducts\\ADP7142-5.0 1280 128 R0
SYMATTR InstName U1
SYMBOL cap 1072 256 R0
SYMATTR InstName C1
SYMATTR Value 1n
SYMBOL res 1088 32 R0
SYMATTR InstName R2
SYMATTR Value 10k
SYMBOL cap 960 48 R0
SYMATTR InstName C2
SYMATTR Value 2.2µ
SYMBOL cap 1440 48 R0
SYMATTR InstName C3
SYMATTR Value 2.2µ
SYMBOL res 1584 32 R0
SYMATTR InstName R3
SYMATTR Value 25
TEXT -410 248 Left 2 !.tran 4
TEXT -120 304 Left 2 !.MODEL  Dtvs_SLD8S22A D(IS=1.0e-5 RS=0.00302 N=1.5 IBV=5m BV=25.65 CJO=8060p)
TEXT -120 344 Left 2 !.MODEL Dtvs_5SMDJ24 D(RS=0.02 N=1.5 IBV=1m BV=24.5 CJO=1500p)
