Version 4
SHEET 1 880 680
WIRE -400 -16 -560 -16
WIRE -192 -16 -400 -16
WIRE -400 0 -400 -16
WIRE -192 16 -192 -16
WIRE 96 16 -192 16
WIRE 544 16 352 16
WIRE 576 16 544 16
WIRE 656 16 576 16
WIRE 784 16 656 16
WIRE 784 32 784 16
WIRE -304 80 -400 80
WIRE 96 80 -304 80
WIRE -400 96 -400 80
WIRE 576 96 576 80
WIRE 624 96 576 96
WIRE 656 96 656 80
WIRE 656 96 624 96
WIRE 624 128 624 96
WIRE -64 144 -128 144
WIRE 96 144 16 144
WIRE 784 160 784 112
WIRE -128 176 -128 144
WIRE -128 176 -144 176
WIRE -128 208 -128 176
WIRE -16 208 -128 208
WIRE 96 208 64 208
WIRE -304 272 -304 80
WIRE 96 272 -304 272
WIRE 96 336 -304 336
WIRE 544 336 544 16
WIRE 544 336 352 336
WIRE -304 368 -304 336
WIRE 224 432 224 400
FLAG -400 176 0
FLAG -560 64 0
FLAG -144 176 0
FLAG 624 128 0
FLAG -304 448 0
FLAG 224 432 0
FLAG 784 160 0
DATAFLAG 544 16 ""
SYMBOL SpecialFunctions\\LTC4415 224 160 R0
SYMATTR InstName U1
SYMBOL res -416 -16 R0
SYMATTR InstName R1
SYMATTR Value 100k
SYMBOL res -416 80 R0
SYMATTR InstName R2
SYMATTR Value 21.5k
SYMBOL voltage -560 -32 R0
WINDOW 123 0 0 Left 0
WINDOW 39 0 0 Left 0
SYMATTR InstName V1
SYMATTR Value PULSE(5 0 1 10m 5 1 0)
SYMBOL res 32 128 R90
WINDOW 0 5 60 VBottom 2
WINDOW 3 32 56 VTop 2
SYMATTR InstName R3
SYMATTR Value 140
SYMBOL res 80 192 R90
WINDOW 0 4 40 VBottom 2
WINDOW 3 32 56 VTop 2
SYMATTR InstName R4
SYMATTR Value 140
SYMBOL cap 560 16 R0
SYMATTR InstName C1
SYMATTR Value 100n
SYMBOL cap 640 16 R0
SYMATTR InstName C2
SYMATTR Value 10µ
SYMBOL voltage -304 352 R0
WINDOW 123 0 0 Left 0
WINDOW 39 0 0 Left 0
SYMATTR InstName V2
SYMATTR Value 5
SYMBOL res 768 16 R0
SYMATTR InstName R5
SYMATTR Value 5
TEXT -594 472 Left 2 !.tran 0 10 1n
